<?xml version="1.0" encoding="UTF-8"?>

<!-- generated on 07/02/21 14:14:33 by Eclipse SUMO netedit Version 1.8.0
<configuration xmlns:xsi="http://www.w3.org/2001/XMLSchema-instance" xsi:noNamespaceSchemaLocation="http://sumo.dlr.de/xsd/netconvertConfiguration.xsd">

    <input>
        <sumo-net-file value="redefine.net.xml"/>
    </input>

    <output>
        <output-file value="redefine.net.xml"/>
    </output>

    <processing>
        <geometry.min-radius.fix.railways value="false"/>
        <geometry.max-grade.fix value="false"/>
        <offset.disable-normalization value="true"/>
        <lefthand value="false"/>
    </processing>

    <junctions>
        <no-turnarounds value="true"/>
        <junctions.corner-detail value="5"/>
        <junctions.limit-turn-speed value="5.5"/>
        <rectangular-lane-cut value="false"/>
    </junctions>

    <pedestrian>
        <walkingareas value="false"/>
    </pedestrian>

    <report>
        <aggregate-warnings value="5"/>
    </report>

</configuration>
-->

<net version="1.6" junctionCornerDetail="5" limitTurnSpeed="5.50" xmlns:xsi="http://www.w3.org/2001/XMLSchema-instance" xsi:noNamespaceSchemaLocation="http://sumo.dlr.de/xsd/net_file.xsd">

    <location netOffset="0.00,0.00" convBoundary="-275.00,-225.00,300.00,100.00" origBoundary="-10000000000.00,-10000000000.00,10000000000.00,10000000000.00" projParameter="!"/>

    <edge id=":gneJ0_0" function="internal">
        <lane id=":gneJ0_0_0" index="0" speed="13.89" length="27.20" shape="-136.40,83.00 -163.60,83.00"/>
        <lane id=":gneJ0_0_1" index="1" speed="13.89" length="27.20" shape="-136.40,79.80 -163.60,79.80"/>
    </edge>
    <edge id=":gneJ0_2" function="internal">
        <lane id=":gneJ0_2_0" index="0" speed="10.88" length="9.57" shape="-136.40,76.60 -144.45,75.65 -145.76,75.00"/>
    </edge>
    <edge id=":gneJ0_3" function="internal">
        <lane id=":gneJ0_3_0" index="0" speed="10.36" length="7.98" shape="-136.40,76.60 -143.05,75.65 -144.13,75.00"/>
    </edge>
    <edge id=":gneJ0_11" function="internal">
        <lane id=":gneJ0_11_0" index="0" speed="10.88" length="17.57" shape="-145.76,75.00 -150.20,72.80 -153.65,68.05 -154.80,61.40"/>
    </edge>
    <edge id=":gneJ0_12" function="internal">
        <lane id=":gneJ0_12_0" index="0" speed="10.36" length="16.53" shape="-144.13,75.00 -147.80,72.80 -150.65,68.05 -151.60,61.40"/>
    </edge>
    <edge id=":gneJ0_4" function="internal">
        <lane id=":gneJ0_4_0" index="0" speed="6.51" length="9.03" shape="-142.00,61.40 -141.65,63.85 -140.60,65.60 -138.85,66.65 -136.40,67.00"/>
    </edge>
    <edge id=":gneJ0_5" function="internal">
        <lane id=":gneJ0_5_0" index="0" speed="8.00" length="14.19" shape="-145.20,61.40 -144.65,65.25 -143.00,68.00 -140.25,69.65 -136.40,70.20"/>
    </edge>
    <edge id=":gneJ0_6" function="internal">
        <lane id=":gneJ0_6_0" index="0" speed="10.88" length="27.14" shape="-148.40,61.40 -149.35,69.45 -152.20,75.20 -156.95,78.65 -163.60,79.80"/>
    </edge>
    <edge id=":gneJ0_7" function="internal">
        <lane id=":gneJ0_7_0" index="0" speed="10.36" length="24.51" shape="-148.40,61.40 -149.35,68.05 -152.20,72.80 -156.95,75.65 -163.60,76.60"/>
    </edge>
    <edge id=":gneJ0_8" function="internal">
        <lane id=":gneJ0_8_0" index="0" speed="6.51" length="9.03" shape="-163.60,67.00 -161.15,66.65 -159.40,65.60 -158.35,63.85 -158.00,61.40"/>
    </edge>
    <edge id=":gneJ0_9" function="internal">
        <lane id=":gneJ0_9_0" index="0" speed="13.89" length="27.20" shape="-163.60,70.20 -136.40,70.20"/>
        <lane id=":gneJ0_9_1" index="1" speed="13.89" length="27.20" shape="-163.60,73.40 -136.40,73.40"/>
    </edge>
    <edge id=":gneJ1_0" function="internal">
        <lane id=":gneJ1_0_0" index="0" speed="6.51" length="9.03" shape="-108.00,88.60 -108.35,86.15 -109.40,84.40 -111.15,83.35 -113.60,83.00"/>
    </edge>
    <edge id=":gneJ1_1" function="internal">
        <lane id=":gneJ1_1_0" index="0" speed="13.89" length="27.20" shape="-104.80,88.60 -104.80,61.40"/>
    </edge>
    <edge id=":gneJ1_2" function="internal">
        <lane id=":gneJ1_2_0" index="0" speed="10.36" length="13.42" shape="-101.60,88.60 -100.65,81.95 -97.80,77.20 -96.80,76.60"/>
    </edge>
    <edge id=":gneJ1_12" function="internal">
        <lane id=":gneJ1_12_0" index="0" speed="10.36" length="11.09" shape="-96.80,76.60 -93.05,74.35 -86.40,73.40"/>
    </edge>
    <edge id=":gneJ1_3" function="internal">
        <lane id=":gneJ1_3_0" index="0" speed="6.51" length="9.03" shape="-86.40,83.00 -88.85,83.35 -90.60,84.40 -91.65,86.15 -92.00,88.60"/>
    </edge>
    <edge id=":gneJ1_4" function="internal">
        <lane id=":gneJ1_4_0" index="0" speed="13.89" length="27.20" shape="-86.40,79.80 -113.60,79.80"/>
    </edge>
    <edge id=":gneJ1_5" function="internal">
        <lane id=":gneJ1_5_0" index="0" speed="10.36" length="13.42" shape="-86.40,76.60 -93.05,75.65 -97.80,72.80 -98.40,71.80"/>
    </edge>
    <edge id=":gneJ1_13" function="internal">
        <lane id=":gneJ1_13_0" index="0" speed="10.36" length="11.09" shape="-98.40,71.80 -100.65,68.05 -101.60,61.40"/>
    </edge>
    <edge id=":gneJ1_6" function="internal">
        <lane id=":gneJ1_6_0" index="0" speed="6.51" length="9.03" shape="-92.00,61.40 -91.65,63.85 -90.60,65.60 -88.85,66.65 -86.40,67.00"/>
    </edge>
    <edge id=":gneJ1_7" function="internal">
        <lane id=":gneJ1_7_0" index="0" speed="13.89" length="27.20" shape="-95.20,61.40 -95.20,88.60"/>
    </edge>
    <edge id=":gneJ1_8" function="internal">
        <lane id=":gneJ1_8_0" index="0" speed="10.36" length="13.42" shape="-98.40,61.40 -99.35,68.05 -102.20,72.80 -103.20,73.40"/>
    </edge>
    <edge id=":gneJ1_14" function="internal">
        <lane id=":gneJ1_14_0" index="0" speed="10.36" length="11.09" shape="-103.20,73.40 -106.95,75.65 -113.60,76.60"/>
    </edge>
    <edge id=":gneJ1_9" function="internal">
        <lane id=":gneJ1_9_0" index="0" speed="6.51" length="9.03" shape="-113.60,67.00 -111.15,66.65 -109.40,65.60 -108.35,63.85 -108.00,61.40"/>
    </edge>
    <edge id=":gneJ1_10" function="internal">
        <lane id=":gneJ1_10_0" index="0" speed="13.89" length="27.20" shape="-113.60,70.20 -86.40,70.20"/>
    </edge>
    <edge id=":gneJ1_11" function="internal">
        <lane id=":gneJ1_11_0" index="0" speed="10.36" length="13.42" shape="-113.60,73.40 -106.95,74.35 -102.20,77.20 -101.60,78.20"/>
    </edge>
    <edge id=":gneJ1_15" function="internal">
        <lane id=":gneJ1_15_0" index="0" speed="10.36" length="11.09" shape="-101.60,78.20 -99.35,81.95 -98.40,88.60"/>
    </edge>
    <edge id=":gneJ10_0" function="internal">
        <lane id=":gneJ10_0_0" index="0" speed="6.51" length="9.03" shape="242.00,88.60 241.65,86.15 240.60,84.40 238.85,83.35 236.40,83.00"/>
    </edge>
    <edge id=":gneJ10_1" function="internal">
        <lane id=":gneJ10_1_0" index="0" speed="13.89" length="27.20" shape="245.20,88.60 245.20,61.40"/>
    </edge>
    <edge id=":gneJ10_2" function="internal">
        <lane id=":gneJ10_2_0" index="0" speed="10.36" length="13.42" shape="248.40,88.60 249.35,81.95 252.20,77.20 253.20,76.60"/>
    </edge>
    <edge id=":gneJ10_12" function="internal">
        <lane id=":gneJ10_12_0" index="0" speed="10.36" length="11.09" shape="253.20,76.60 256.95,74.35 263.60,73.40"/>
    </edge>
    <edge id=":gneJ10_3" function="internal">
        <lane id=":gneJ10_3_0" index="0" speed="6.51" length="9.03" shape="263.60,83.00 261.15,83.35 259.40,84.40 258.35,86.15 258.00,88.60"/>
    </edge>
    <edge id=":gneJ10_4" function="internal">
        <lane id=":gneJ10_4_0" index="0" speed="13.89" length="27.20" shape="263.60,79.80 236.40,79.80"/>
    </edge>
    <edge id=":gneJ10_5" function="internal">
        <lane id=":gneJ10_5_0" index="0" speed="10.36" length="13.42" shape="263.60,76.60 256.95,75.65 252.20,72.80 251.60,71.80"/>
    </edge>
    <edge id=":gneJ10_13" function="internal">
        <lane id=":gneJ10_13_0" index="0" speed="10.36" length="11.09" shape="251.60,71.80 249.35,68.05 248.40,61.40"/>
    </edge>
    <edge id=":gneJ10_6" function="internal">
        <lane id=":gneJ10_6_0" index="0" speed="6.51" length="9.03" shape="258.00,61.40 258.35,63.85 259.40,65.60 261.15,66.65 263.60,67.00"/>
    </edge>
    <edge id=":gneJ10_7" function="internal">
        <lane id=":gneJ10_7_0" index="0" speed="13.89" length="27.20" shape="254.80,61.40 254.80,88.60"/>
    </edge>
    <edge id=":gneJ10_8" function="internal">
        <lane id=":gneJ10_8_0" index="0" speed="10.36" length="13.42" shape="251.60,61.40 250.65,68.05 247.80,72.80 246.80,73.40"/>
    </edge>
    <edge id=":gneJ10_14" function="internal">
        <lane id=":gneJ10_14_0" index="0" speed="10.36" length="11.09" shape="246.80,73.40 243.05,75.65 236.40,76.60"/>
    </edge>
    <edge id=":gneJ10_9" function="internal">
        <lane id=":gneJ10_9_0" index="0" speed="6.51" length="9.03" shape="236.40,67.00 238.85,66.65 240.60,65.60 241.65,63.85 242.00,61.40"/>
    </edge>
    <edge id=":gneJ10_10" function="internal">
        <lane id=":gneJ10_10_0" index="0" speed="13.89" length="27.20" shape="236.40,70.20 263.60,70.20"/>
    </edge>
    <edge id=":gneJ10_11" function="internal">
        <lane id=":gneJ10_11_0" index="0" speed="10.36" length="13.42" shape="236.40,73.40 243.05,74.35 247.80,77.20 248.40,78.20"/>
    </edge>
    <edge id=":gneJ10_15" function="internal">
        <lane id=":gneJ10_15_0" index="0" speed="10.36" length="11.09" shape="248.40,78.20 250.65,81.95 251.60,88.60"/>
    </edge>
    <edge id=":gneJ11_0" function="internal">
        <lane id=":gneJ11_0_0" index="0" speed="6.51" length="9.03" shape="242.00,13.60 241.65,11.15 240.60,9.40 238.85,8.35 236.40,8.00"/>
    </edge>
    <edge id=":gneJ11_1" function="internal">
        <lane id=":gneJ11_1_0" index="0" speed="13.89" length="27.20" shape="245.20,13.60 245.20,-13.60"/>
        <lane id=":gneJ11_1_1" index="1" speed="13.89" length="27.20" shape="248.40,13.60 248.40,-13.60"/>
    </edge>
    <edge id=":gneJ11_3" function="internal">
        <lane id=":gneJ11_3_0" index="0" speed="13.89" length="27.20" shape="258.00,-13.60 258.00,13.60"/>
        <lane id=":gneJ11_3_1" index="1" speed="13.89" length="27.20" shape="254.80,-13.60 254.80,13.60"/>
    </edge>
    <edge id=":gneJ11_5" function="internal">
        <lane id=":gneJ11_5_0" index="0" speed="10.88" length="9.57" shape="251.60,-13.60 250.65,-5.55 250.00,-4.24"/>
    </edge>
    <edge id=":gneJ11_6" function="internal">
        <lane id=":gneJ11_6_0" index="0" speed="10.36" length="7.98" shape="251.60,-13.60 250.65,-6.95 250.00,-5.87"/>
    </edge>
    <edge id=":gneJ11_11" function="internal">
        <lane id=":gneJ11_11_0" index="0" speed="10.88" length="17.57" shape="250.00,-4.24 247.80,0.20 243.05,3.65 236.40,4.80"/>
    </edge>
    <edge id=":gneJ11_12" function="internal">
        <lane id=":gneJ11_12_0" index="0" speed="10.36" length="16.53" shape="250.00,-5.87 247.80,-2.20 243.05,0.65 236.40,1.60"/>
    </edge>
    <edge id=":gneJ11_7" function="internal">
        <lane id=":gneJ11_7_0" index="0" speed="6.51" length="9.03" shape="236.40,-8.00 238.85,-8.35 240.60,-9.40 241.65,-11.15 242.00,-13.60"/>
    </edge>
    <edge id=":gneJ11_8" function="internal">
        <lane id=":gneJ11_8_0" index="0" speed="8.00" length="14.19" shape="236.40,-4.80 240.25,-5.35 243.00,-7.00 244.65,-9.75 245.20,-13.60"/>
    </edge>
    <edge id=":gneJ11_9" function="internal">
        <lane id=":gneJ11_9_0" index="0" speed="10.88" length="27.14" shape="236.40,-1.60 244.45,-0.65 250.20,2.20 253.65,6.95 254.80,13.60"/>
    </edge>
    <edge id=":gneJ11_10" function="internal">
        <lane id=":gneJ11_10_0" index="0" speed="10.36" length="24.51" shape="236.40,-1.60 243.05,-0.65 247.80,2.20 250.65,6.95 251.60,13.60"/>
    </edge>
    <edge id=":gneJ12_0" function="internal">
        <lane id=":gneJ12_0_0" index="0" speed="6.51" length="9.03" shape="242.00,-86.40 241.65,-88.85 240.60,-90.60 238.85,-91.65 236.40,-92.00"/>
    </edge>
    <edge id=":gneJ12_1" function="internal">
        <lane id=":gneJ12_1_0" index="0" speed="13.89" length="27.20" shape="245.20,-86.40 245.20,-113.60"/>
        <lane id=":gneJ12_1_1" index="1" speed="13.89" length="27.20" shape="248.40,-86.40 248.40,-113.60"/>
    </edge>
    <edge id=":gneJ12_3" function="internal">
        <lane id=":gneJ12_3_0" index="0" speed="13.89" length="27.20" shape="258.00,-113.60 258.00,-86.40"/>
        <lane id=":gneJ12_3_1" index="1" speed="13.89" length="27.20" shape="254.80,-113.60 254.80,-86.40"/>
    </edge>
    <edge id=":gneJ12_5" function="internal">
        <lane id=":gneJ12_5_0" index="0" speed="10.88" length="9.57" shape="251.60,-113.60 250.65,-105.55 250.00,-104.24"/>
    </edge>
    <edge id=":gneJ12_6" function="internal">
        <lane id=":gneJ12_6_0" index="0" speed="10.36" length="7.98" shape="251.60,-113.60 250.65,-106.95 250.00,-105.87"/>
    </edge>
    <edge id=":gneJ12_11" function="internal">
        <lane id=":gneJ12_11_0" index="0" speed="10.88" length="17.57" shape="250.00,-104.24 247.80,-99.80 243.05,-96.35 236.40,-95.20"/>
    </edge>
    <edge id=":gneJ12_12" function="internal">
        <lane id=":gneJ12_12_0" index="0" speed="10.36" length="16.53" shape="250.00,-105.87 247.80,-102.20 243.05,-99.35 236.40,-98.40"/>
    </edge>
    <edge id=":gneJ12_7" function="internal">
        <lane id=":gneJ12_7_0" index="0" speed="6.51" length="9.03" shape="236.40,-108.00 238.85,-108.35 240.60,-109.40 241.65,-111.15 242.00,-113.60"/>
    </edge>
    <edge id=":gneJ12_8" function="internal">
        <lane id=":gneJ12_8_0" index="0" speed="8.00" length="14.19" shape="236.40,-104.80 240.25,-105.35 243.00,-107.00 244.65,-109.75 245.20,-113.60"/>
    </edge>
    <edge id=":gneJ12_9" function="internal">
        <lane id=":gneJ12_9_0" index="0" speed="10.88" length="27.14" shape="236.40,-101.60 244.45,-100.65 250.20,-97.80 253.65,-93.05 254.80,-86.40"/>
    </edge>
    <edge id=":gneJ12_10" function="internal">
        <lane id=":gneJ12_10_0" index="0" speed="10.36" length="24.51" shape="236.40,-101.60 243.05,-100.65 247.80,-97.80 250.65,-93.05 251.60,-86.40"/>
    </edge>
    <edge id=":gneJ13_0" function="internal">
        <lane id=":gneJ13_0_0" index="0" speed="6.51" length="9.03" shape="242.00,-161.40 241.65,-163.85 240.60,-165.60 238.85,-166.65 236.40,-167.00"/>
    </edge>
    <edge id=":gneJ13_1" function="internal">
        <lane id=":gneJ13_1_0" index="0" speed="13.89" length="27.20" shape="245.20,-161.40 245.20,-188.60"/>
    </edge>
    <edge id=":gneJ13_2" function="internal">
        <lane id=":gneJ13_2_0" index="0" speed="10.36" length="24.51" shape="248.40,-161.40 249.35,-168.05 252.20,-172.80 256.95,-175.65 263.60,-176.60"/>
    </edge>
    <edge id=":gneJ13_3" function="internal">
        <lane id=":gneJ13_3_0" index="0" speed="6.51" length="9.03" shape="263.60,-167.00 261.15,-166.65 259.40,-165.60 258.35,-163.85 258.00,-161.40"/>
    </edge>
    <edge id=":gneJ13_4" function="internal">
        <lane id=":gneJ13_4_0" index="0" speed="13.89" length="27.20" shape="263.60,-170.20 236.40,-170.20"/>
    </edge>
    <edge id=":gneJ13_5" function="internal">
        <lane id=":gneJ13_5_0" index="0" speed="10.36" length="24.51" shape="263.60,-173.40 256.95,-174.35 252.20,-177.20 249.35,-181.95 248.40,-188.60"/>
    </edge>
    <edge id=":gneJ13_6" function="internal">
        <lane id=":gneJ13_6_0" index="0" speed="6.51" length="9.03" shape="258.00,-188.60 258.35,-186.15 259.40,-184.40 261.15,-183.35 263.60,-183.00"/>
    </edge>
    <edge id=":gneJ13_7" function="internal">
        <lane id=":gneJ13_7_0" index="0" speed="13.89" length="27.20" shape="254.80,-188.60 254.80,-161.40"/>
    </edge>
    <edge id=":gneJ13_8" function="internal">
        <lane id=":gneJ13_8_0" index="0" speed="10.36" length="24.51" shape="251.60,-188.60 250.65,-181.95 247.80,-177.20 243.05,-174.35 236.40,-173.40"/>
    </edge>
    <edge id=":gneJ13_9" function="internal">
        <lane id=":gneJ13_9_0" index="0" speed="6.51" length="9.03" shape="236.40,-183.00 238.85,-183.35 240.60,-184.40 241.65,-186.15 242.00,-188.60"/>
    </edge>
    <edge id=":gneJ13_10" function="internal">
        <lane id=":gneJ13_10_0" index="0" speed="13.89" length="27.20" shape="236.40,-179.80 263.60,-179.80"/>
    </edge>
    <edge id=":gneJ13_11" function="internal">
        <lane id=":gneJ13_11_0" index="0" speed="10.36" length="24.51" shape="236.40,-176.60 243.05,-175.65 247.80,-172.80 250.65,-168.05 251.60,-161.40"/>
    </edge>
    <edge id=":gneJ14_0" function="internal">
        <lane id=":gneJ14_0_0" index="0" speed="13.89" length="27.20" shape="163.60,-167.00 136.40,-167.00"/>
        <lane id=":gneJ14_0_1" index="1" speed="13.89" length="27.20" shape="163.60,-170.20 136.40,-170.20"/>
    </edge>
    <edge id=":gneJ14_2" function="internal">
        <lane id=":gneJ14_2_0" index="0" speed="10.88" length="9.57" shape="163.60,-173.40 155.55,-174.35 154.24,-175.00"/>
    </edge>
    <edge id=":gneJ14_3" function="internal">
        <lane id=":gneJ14_3_0" index="0" speed="10.36" length="7.98" shape="163.60,-173.40 156.95,-174.35 155.87,-175.00"/>
    </edge>
    <edge id=":gneJ14_11" function="internal">
        <lane id=":gneJ14_11_0" index="0" speed="10.88" length="17.57" shape="154.24,-175.00 149.80,-177.20 146.35,-181.95 145.20,-188.60"/>
    </edge>
    <edge id=":gneJ14_12" function="internal">
        <lane id=":gneJ14_12_0" index="0" speed="10.36" length="16.53" shape="155.87,-175.00 152.20,-177.20 149.35,-181.95 148.40,-188.60"/>
    </edge>
    <edge id=":gneJ14_4" function="internal">
        <lane id=":gneJ14_4_0" index="0" speed="6.51" length="9.03" shape="158.00,-188.60 158.35,-186.15 159.40,-184.40 161.15,-183.35 163.60,-183.00"/>
    </edge>
    <edge id=":gneJ14_5" function="internal">
        <lane id=":gneJ14_5_0" index="0" speed="8.00" length="14.19" shape="154.80,-188.60 155.35,-184.75 157.00,-182.00 159.75,-180.35 163.60,-179.80"/>
    </edge>
    <edge id=":gneJ14_6" function="internal">
        <lane id=":gneJ14_6_0" index="0" speed="10.88" length="27.14" shape="151.60,-188.60 150.65,-180.55 147.80,-174.80 143.05,-171.35 136.40,-170.20"/>
    </edge>
    <edge id=":gneJ14_7" function="internal">
        <lane id=":gneJ14_7_0" index="0" speed="10.36" length="24.51" shape="151.60,-188.60 150.65,-181.95 147.80,-177.20 143.05,-174.35 136.40,-173.40"/>
    </edge>
    <edge id=":gneJ14_8" function="internal">
        <lane id=":gneJ14_8_0" index="0" speed="6.51" length="9.03" shape="136.40,-183.00 138.85,-183.35 140.60,-184.40 141.65,-186.15 142.00,-188.60"/>
    </edge>
    <edge id=":gneJ14_9" function="internal">
        <lane id=":gneJ14_9_0" index="0" speed="13.89" length="27.20" shape="136.40,-179.80 163.60,-179.80"/>
        <lane id=":gneJ14_9_1" index="1" speed="13.89" length="27.20" shape="136.40,-176.60 163.60,-176.60"/>
    </edge>
    <edge id=":gneJ15_0" function="internal">
        <lane id=":gneJ15_0_0" index="0" speed="3.90" length="2.58" shape="142.00,-215.40 141.90,-216.10 141.60,-216.60 141.10,-216.90 140.40,-217.00"/>
    </edge>
    <edge id=":gneJ15_1" function="internal">
        <lane id=":gneJ15_1_0" index="0" speed="6.08" length="7.74" shape="145.20,-215.40 144.90,-217.50 144.00,-219.00 142.50,-219.90 140.40,-220.20"/>
    </edge>
    <edge id=":gneJ15_2" function="internal">
        <lane id=":gneJ15_2_0" index="0" speed="7.66" length="12.90" shape="148.40,-215.40 147.90,-218.90 146.40,-221.40 143.90,-222.90 140.40,-223.40"/>
    </edge>
    <edge id=":gneJ15_3" function="internal">
        <lane id=":gneJ15_3_0" index="0" speed="11.12" length="28.38" shape="140.40,-233.00 148.10,-231.90 153.60,-228.60 156.90,-223.10 158.00,-215.40"/>
    </edge>
    <edge id=":gneJ15_4" function="internal">
        <lane id=":gneJ15_4_0" index="0" speed="10.10" length="23.22" shape="140.40,-229.80 146.70,-228.90 151.20,-226.20 153.90,-221.70 154.80,-215.40"/>
    </edge>
    <edge id=":gneJ15_5" function="internal">
        <lane id=":gneJ15_5_0" index="0" speed="8.96" length="18.06" shape="140.40,-226.60 145.30,-225.90 148.80,-223.80 150.90,-220.30 151.60,-215.40"/>
    </edge>
    <edge id=":gneJ16_0" function="internal">
        <lane id=":gneJ16_0_0" index="0" speed="11.12" length="28.38" shape="-8.00,-215.40 -6.90,-223.10 -3.60,-228.60 1.90,-231.90 9.60,-233.00"/>
    </edge>
    <edge id=":gneJ16_1" function="internal">
        <lane id=":gneJ16_1_0" index="0" speed="10.10" length="23.22" shape="-4.80,-215.40 -3.90,-221.70 -1.20,-226.20 3.30,-228.90 9.60,-229.80"/>
    </edge>
    <edge id=":gneJ16_2" function="internal">
        <lane id=":gneJ16_2_0" index="0" speed="8.96" length="18.06" shape="-1.60,-215.40 -0.90,-220.30 1.20,-223.80 4.70,-225.90 9.60,-226.60"/>
    </edge>
    <edge id=":gneJ16_3" function="internal">
        <lane id=":gneJ16_3_0" index="0" speed="3.90" length="2.58" shape="9.60,-217.00 8.90,-216.90 8.40,-216.60 8.10,-216.10 8.00,-215.40"/>
    </edge>
    <edge id=":gneJ16_4" function="internal">
        <lane id=":gneJ16_4_0" index="0" speed="6.08" length="7.74" shape="9.60,-220.20 7.50,-219.90 6.00,-219.00 5.10,-217.50 4.80,-215.40"/>
    </edge>
    <edge id=":gneJ16_5" function="internal">
        <lane id=":gneJ16_5_0" index="0" speed="7.66" length="12.90" shape="9.60,-223.40 6.10,-222.90 3.60,-221.40 2.10,-218.90 1.60,-215.40"/>
    </edge>
    <edge id=":gneJ17_0" function="internal">
        <lane id=":gneJ17_0_0" index="0" speed="6.51" length="9.03" shape="-8.00,-161.40 -8.35,-163.85 -9.40,-165.60 -11.15,-166.65 -13.60,-167.00"/>
    </edge>
    <edge id=":gneJ17_1" function="internal">
        <lane id=":gneJ17_1_0" index="0" speed="13.89" length="27.20" shape="-4.80,-161.40 -4.80,-188.60"/>
    </edge>
    <edge id=":gneJ17_2" function="internal">
        <lane id=":gneJ17_2_0" index="0" speed="10.36" length="13.42" shape="-1.60,-161.40 -0.65,-168.05 2.20,-172.80 3.20,-173.40"/>
    </edge>
    <edge id=":gneJ17_12" function="internal">
        <lane id=":gneJ17_12_0" index="0" speed="10.36" length="11.09" shape="3.20,-173.40 6.95,-175.65 13.60,-176.60"/>
    </edge>
    <edge id=":gneJ17_3" function="internal">
        <lane id=":gneJ17_3_0" index="0" speed="6.51" length="9.03" shape="13.60,-167.00 11.15,-166.65 9.40,-165.60 8.35,-163.85 8.00,-161.40"/>
    </edge>
    <edge id=":gneJ17_4" function="internal">
        <lane id=":gneJ17_4_0" index="0" speed="13.89" length="27.20" shape="13.60,-170.20 -13.60,-170.20"/>
    </edge>
    <edge id=":gneJ17_5" function="internal">
        <lane id=":gneJ17_5_0" index="0" speed="10.36" length="13.42" shape="13.60,-173.40 6.95,-174.35 2.20,-177.20 1.60,-178.20"/>
    </edge>
    <edge id=":gneJ17_13" function="internal">
        <lane id=":gneJ17_13_0" index="0" speed="10.36" length="11.09" shape="1.60,-178.20 -0.65,-181.95 -1.60,-188.60"/>
    </edge>
    <edge id=":gneJ17_6" function="internal">
        <lane id=":gneJ17_6_0" index="0" speed="6.51" length="9.03" shape="8.00,-188.60 8.35,-186.15 9.40,-184.40 11.15,-183.35 13.60,-183.00"/>
    </edge>
    <edge id=":gneJ17_7" function="internal">
        <lane id=":gneJ17_7_0" index="0" speed="13.89" length="27.20" shape="4.80,-188.60 4.80,-161.40"/>
    </edge>
    <edge id=":gneJ17_8" function="internal">
        <lane id=":gneJ17_8_0" index="0" speed="10.36" length="13.42" shape="1.60,-188.60 0.65,-181.95 -2.20,-177.20 -3.20,-176.60"/>
    </edge>
    <edge id=":gneJ17_14" function="internal">
        <lane id=":gneJ17_14_0" index="0" speed="10.36" length="11.09" shape="-3.20,-176.60 -6.95,-174.35 -13.60,-173.40"/>
    </edge>
    <edge id=":gneJ17_9" function="internal">
        <lane id=":gneJ17_9_0" index="0" speed="6.51" length="9.03" shape="-13.60,-183.00 -11.15,-183.35 -9.40,-184.40 -8.35,-186.15 -8.00,-188.60"/>
    </edge>
    <edge id=":gneJ17_10" function="internal">
        <lane id=":gneJ17_10_0" index="0" speed="13.89" length="27.20" shape="-13.60,-179.80 13.60,-179.80"/>
    </edge>
    <edge id=":gneJ17_11" function="internal">
        <lane id=":gneJ17_11_0" index="0" speed="10.36" length="13.42" shape="-13.60,-176.60 -6.95,-175.65 -2.20,-172.80 -1.60,-171.80"/>
    </edge>
    <edge id=":gneJ17_15" function="internal">
        <lane id=":gneJ17_15_0" index="0" speed="10.36" length="11.09" shape="-1.60,-171.80 0.65,-168.05 1.60,-161.40"/>
    </edge>
    <edge id=":gneJ18_0" function="internal">
        <lane id=":gneJ18_0_0" index="0" speed="6.51" length="9.03" shape="-258.00,-161.40 -258.35,-163.85 -259.40,-165.60 -261.15,-166.65 -263.60,-167.00"/>
    </edge>
    <edge id=":gneJ18_1" function="internal">
        <lane id=":gneJ18_1_0" index="0" speed="13.89" length="27.20" shape="-254.80,-161.40 -254.80,-188.60"/>
    </edge>
    <edge id=":gneJ18_2" function="internal">
        <lane id=":gneJ18_2_0" index="0" speed="10.36" length="13.42" shape="-251.60,-161.40 -250.65,-168.05 -247.80,-172.80 -246.80,-173.40"/>
    </edge>
    <edge id=":gneJ18_12" function="internal">
        <lane id=":gneJ18_12_0" index="0" speed="10.36" length="11.09" shape="-246.80,-173.40 -243.05,-175.65 -236.40,-176.60"/>
    </edge>
    <edge id=":gneJ18_3" function="internal">
        <lane id=":gneJ18_3_0" index="0" speed="6.51" length="9.03" shape="-236.40,-167.00 -238.85,-166.65 -240.60,-165.60 -241.65,-163.85 -242.00,-161.40"/>
    </edge>
    <edge id=":gneJ18_4" function="internal">
        <lane id=":gneJ18_4_0" index="0" speed="13.89" length="27.20" shape="-236.40,-170.20 -263.60,-170.20"/>
    </edge>
    <edge id=":gneJ18_5" function="internal">
        <lane id=":gneJ18_5_0" index="0" speed="10.36" length="13.42" shape="-236.40,-173.40 -243.05,-174.35 -247.80,-177.20 -248.40,-178.20"/>
    </edge>
    <edge id=":gneJ18_13" function="internal">
        <lane id=":gneJ18_13_0" index="0" speed="10.36" length="11.09" shape="-248.40,-178.20 -250.65,-181.95 -251.60,-188.60"/>
    </edge>
    <edge id=":gneJ18_6" function="internal">
        <lane id=":gneJ18_6_0" index="0" speed="6.51" length="9.03" shape="-242.00,-188.60 -241.65,-186.15 -240.60,-184.40 -238.85,-183.35 -236.40,-183.00"/>
    </edge>
    <edge id=":gneJ18_7" function="internal">
        <lane id=":gneJ18_7_0" index="0" speed="13.89" length="27.20" shape="-245.20,-188.60 -245.20,-161.40"/>
    </edge>
    <edge id=":gneJ18_8" function="internal">
        <lane id=":gneJ18_8_0" index="0" speed="10.36" length="13.42" shape="-248.40,-188.60 -249.35,-181.95 -252.20,-177.20 -253.20,-176.60"/>
    </edge>
    <edge id=":gneJ18_14" function="internal">
        <lane id=":gneJ18_14_0" index="0" speed="10.36" length="11.09" shape="-253.20,-176.60 -256.95,-174.35 -263.60,-173.40"/>
    </edge>
    <edge id=":gneJ18_9" function="internal">
        <lane id=":gneJ18_9_0" index="0" speed="6.51" length="9.03" shape="-263.60,-183.00 -261.15,-183.35 -259.40,-184.40 -258.35,-186.15 -258.00,-188.60"/>
    </edge>
    <edge id=":gneJ18_10" function="internal">
        <lane id=":gneJ18_10_0" index="0" speed="13.89" length="27.20" shape="-263.60,-179.80 -236.40,-179.80"/>
    </edge>
    <edge id=":gneJ18_11" function="internal">
        <lane id=":gneJ18_11_0" index="0" speed="10.36" length="13.42" shape="-263.60,-176.60 -256.95,-175.65 -252.20,-172.80 -251.60,-171.80"/>
    </edge>
    <edge id=":gneJ18_15" function="internal">
        <lane id=":gneJ18_15_0" index="0" speed="10.36" length="11.09" shape="-251.60,-171.80 -249.35,-168.05 -248.40,-161.40"/>
    </edge>
    <edge id=":gneJ19_0" function="internal">
        <lane id=":gneJ19_0_0" index="0" speed="13.89" length="27.20" shape="-258.00,13.60 -258.00,-13.60"/>
        <lane id=":gneJ19_0_1" index="1" speed="13.89" length="27.20" shape="-254.80,13.60 -254.80,-13.60"/>
    </edge>
    <edge id=":gneJ19_2" function="internal">
        <lane id=":gneJ19_2_0" index="0" speed="10.88" length="9.57" shape="-251.60,13.60 -250.65,5.55 -250.00,4.24"/>
    </edge>
    <edge id=":gneJ19_3" function="internal">
        <lane id=":gneJ19_3_0" index="0" speed="10.36" length="7.98" shape="-251.60,13.60 -250.65,6.95 -250.00,5.87"/>
    </edge>
    <edge id=":gneJ19_10" function="internal">
        <lane id=":gneJ19_10_0" index="0" speed="10.88" length="17.57" shape="-250.00,4.24 -247.80,-0.20 -243.05,-3.65 -236.40,-4.80"/>
    </edge>
    <edge id=":gneJ19_11" function="internal">
        <lane id=":gneJ19_11_0" index="0" speed="10.36" length="16.53" shape="-250.00,5.87 -247.80,2.20 -243.05,-0.65 -236.40,-1.60"/>
    </edge>
    <edge id=":gneJ19_4" function="internal">
        <lane id=":gneJ19_4_0" index="0" speed="6.51" length="9.03" shape="-236.40,8.00 -238.85,8.35 -240.60,9.40 -241.65,11.15 -242.00,13.60"/>
    </edge>
    <edge id=":gneJ19_5" function="internal">
        <lane id=":gneJ19_5_0" index="0" speed="11.36" length="29.67" shape="-236.40,4.80 -244.45,3.65 -250.20,0.20 -253.65,-5.55 -254.80,-13.60"/>
    </edge>
    <edge id=":gneJ19_6" function="internal">
        <lane id=":gneJ19_6_0" index="0" speed="10.36" length="24.51" shape="-236.40,1.60 -243.05,0.65 -247.80,-2.20 -250.65,-6.95 -251.60,-13.60"/>
    </edge>
    <edge id=":gneJ19_7" function="internal">
        <lane id=":gneJ19_7_0" index="0" speed="6.51" length="9.03" shape="-242.00,-13.60 -241.65,-11.15 -240.60,-9.40 -238.85,-8.35 -236.40,-8.00"/>
    </edge>
    <edge id=":gneJ19_8" function="internal">
        <lane id=":gneJ19_8_0" index="0" speed="13.89" length="27.20" shape="-245.20,-13.60 -245.20,13.60"/>
        <lane id=":gneJ19_8_1" index="1" speed="13.89" length="27.20" shape="-248.40,-13.60 -248.40,13.60"/>
    </edge>
    <edge id=":gneJ2_0" function="internal">
        <lane id=":gneJ2_0_0" index="0" speed="13.89" length="27.20" shape="-36.40,83.00 -63.60,83.00"/>
        <lane id=":gneJ2_0_1" index="1" speed="13.89" length="27.20" shape="-36.40,79.80 -63.60,79.80"/>
    </edge>
    <edge id=":gneJ2_2" function="internal">